data_image0
_cell_length_a       9.905
_cell_length_b       9.905
_cell_length_c       9.905
_cell_angle_alpha    90
_cell_angle_beta     90
_cell_angle_gamma    90

_symmetry_space_group_name_H-M    "P 1"
_symmetry_int_tables_number       1

loop_
  _symmetry_equiv_pos_as_xyz
  'x, y, z'

loop_
  _atom_site_type_symbol
  _atom_site_occupancy
  _atom_site_fract_x
  _atom_site_fract_y
  _atom_site_fract_z
  _atom_site_thermal_displace_type
  _atom_site_B_iso_or_equiv
  _atom_site_label
  O1       1.0000 0.25000  0.25000  0.25000  Biso   1.000  O
  O2       1.0000 0.75000  0.75000  0.75000  Biso   1.000  O
  O3       1.0000 0.25000  0.25000  0.75000  Biso   1.000  O
  O4       1.0000 0.75000  0.75000  0.25000  Biso   1.000  O
  O5       1.0000 0.75000  0.25000  0.25000  Biso   1.000  O
  O6       1.0000 0.25000  0.75000  0.75000  Biso   1.000  O
  O7       1.0000 0.75000  0.25000  0.75000  Biso   1.000  O
  O8       1.0000 0.25000  0.75000  0.25000  Biso   1.000  O
  O9       1.0000 0.18770  0.18770  0.00000  Biso   1.000  O
  O10      1.0000 0.68770  0.68770  0.50000  Biso   1.000  O
  O11      1.0000 0.00000  0.18770  0.18770  Biso   1.000  O
  O12      1.0000 0.50000  0.68770  0.68770  Biso   1.000  O
  O13      1.0000 0.18770  0.00000  0.18770  Biso   1.000  O
  O14      1.0000 0.68770  0.50000  0.68770  Biso   1.000  O
  O15      1.0000 0.00000  0.18770  0.81230  Biso   1.000  O
  O16      1.0000 0.50000  0.68770  0.31230  Biso   1.000  O
  O17      1.0000 0.18770  0.00000  0.81230  Biso   1.000  O
  O18      1.0000 0.68770  0.50000  0.31230  Biso   1.000  O
  O19      1.0000 0.81230  0.18770  0.00000  Biso   1.000  O
  O20      1.0000 0.31230  0.68770  0.50000  Biso   1.000  O
  O21      1.0000 0.81230  0.00000  0.18770  Biso   1.000  O
  O22      1.0000 0.31230  0.50000  0.68770  Biso   1.000  O
  O23      1.0000 0.81230  0.00000  0.81230  Biso   1.000  O
  O24      1.0000 0.31230  0.50000  0.31230  Biso   1.000  O
  O25      1.0000 0.18770  0.81230  0.00000  Biso   1.000  O
  O26      1.0000 0.68770  0.31230  0.50000  Biso   1.000  O
  O27      1.0000 0.00000  0.81230  0.18770  Biso   1.000  O
  O28      1.0000 0.50000  0.31230  0.68770  Biso   1.000  O
  O29      1.0000 0.00000  0.81230  0.81230  Biso   1.000  O
  O30      1.0000 0.50000  0.31230  0.31230  Biso   1.000  O
  O31      1.0000 0.81230  0.81230  0.00000  Biso   1.000  O
  O32      1.0000 0.31230  0.31230  0.50000  Biso   1.000  O
  Si1      1.0000 0.15640  0.15640  0.15640  Biso   1.000  Si
  Si2      1.0000 0.65640  0.65640  0.65640  Biso   1.000  Si
  Si3      1.0000 0.15640  0.15640  0.84360  Biso   1.000  Si
  Si4      1.0000 0.65640  0.65640  0.34360  Biso   1.000  Si
  Si5      1.0000 0.84360  0.15640  0.15640  Biso   1.000  Si
  Si6      1.0000 0.34360  0.65640  0.65640  Biso   1.000  Si
  Si7      1.0000 0.84360  0.15640  0.84360  Biso   1.000  Si
  Si8      1.0000 0.34360  0.65640  0.34360  Biso   1.000  Si
  Si9      1.0000 0.15640  0.84360  0.15640  Biso   1.000  Si
  Si10     1.0000 0.65640  0.34360  0.65640  Biso   1.000  Si
  Si11     1.0000 0.15640  0.84360  0.84360  Biso   1.000  Si
  Si12     1.0000 0.65640  0.34360  0.34360  Biso   1.000  Si
  Si13     1.0000 0.84360  0.84360  0.84360  Biso   1.000  Si
  Si14     1.0000 0.34360  0.34360  0.34360  Biso   1.000  Si
  Si15     1.0000 0.84360  0.84360  0.15640  Biso   1.000  Si
  Si16     1.0000 0.34360  0.34360  0.65640  Biso   1.000  Si
