data_-169.5508_TCC1RS_13_18210
_space_group_name_Hall 		'P 1'
_space_group_name_H-M 		'P 1'
_symmetry_Int_Tables_number     1
loop_
_symmetry_equiv_pos_as_xyz
'x, y, z'

_cell_length_a 34.1995
_cell_length_b 22.6557
_cell_length_c 19.4692
_cell_angle_alpha 90.0
_cell_angle_beta 52.8626
_cell_angle_gamma 90.0

loop_
_atom_site_label
_atom_site_type_symbol
_atom_site_fract_x
_atom_site_fract_y
_atom_site_fract_z
N N 0.918277590 0.053431180 0.866491640
N N 0.859763330 0.066448400 1.047811120
N N 0.704811320 0.120107510 0.604036290
N N 0.674458500 0.238557410 0.617414470
N N 0.751523280 0.312828670 1.227063920
N N 0.785700450 0.415656300 1.123298490
N N 0.531827380 0.015978920 1.113115380
N N 0.589662620 -0.038012560 0.948555590
N N 0.930437100 0.395422090 0.709614390
N N 0.981741850 0.288067090 0.635226580
N N 0.531492770 0.363681770 0.988216520
N N 0.477144420 0.290755890 1.136237760
C C 0.923172780 0.208660070 0.692401370
C C 0.938961080 0.181819020 0.736376760
C C 0.916552360 0.130532030 0.783423710
C C 0.877746290 0.105806660 0.787537830
C C 0.861201740 0.132669850 0.745020920
C C 0.884419330 0.184176450 0.697055210
C C 0.946267810 0.263385900 0.642447160
C C 0.933035650 0.103491020 0.831022880
C C 0.820039500 0.109453200 0.751977580
C C 0.784409770 0.091755370 0.759393600
C C 0.740887190 0.072038810 0.771533440
C C 0.707566720 0.035480140 0.841639360
C C 0.664223210 0.017784060 0.856352460
C C 0.653635590 0.036913420 0.800972090
C C 0.686538740 0.072674160 0.730935300
C C 0.730270620 0.090108260 0.716026970
C C 0.629660280 -0.019976840 0.931423330
C C 0.674240980 0.093493480 0.674152560
C C 0.935175110 0.032080100 0.914689610
C C 0.968808500 -0.021371890 0.868995390
C C 0.984423450 -0.047617390 0.921431910
C C 0.939719390 -0.064164790 1.012279430
C C 0.905782600 -0.011065870 1.057876760
C C 0.890006820 0.014506100 1.005393830
C C 0.688305330 0.140891170 0.554983860
C C 0.714119840 0.106380460 0.470438760
C C 0.700218160 0.130156750 0.414283440
C C 0.711547550 0.196123510 0.396625760
C C 0.686203030 0.230706980 0.480860680
C C 0.700678480 0.206998730 0.536161220
C C 0.787030310 0.120970320 1.095132050
C C 0.798788040 0.170256410 1.122551980
C C 0.767338420 0.218442290 1.158238450
C C 0.723901400 0.217986020 1.166192810
C C 0.712150680 0.169463730 1.137884270
C C 0.743994780 0.120813310 1.102647810
C C 0.820065360 0.069437260 1.056533860
C C 0.780885490 0.270676760 1.185151230
C C 0.669000550 0.169514020 1.141850340
C C 0.633707970 0.169502070 1.141933210
C C 0.593008660 0.170854260 1.138759360
C C 0.571632820 0.225049540 1.143481250
C C 0.533352080 0.227423170 1.137139090
C C 0.516190230 0.175280190 1.125450780
C C 0.536773290 0.121336550 1.121450550
C C 0.575108970 0.119078630 1.128368560
C C 0.512185620 0.285255650 1.141125440
C C 0.518869720 0.066806150 1.107214340
C C 0.769248450 0.363127800 1.247086890
C C 0.742866410 0.366377750 1.344411550
C C 0.758143570 0.421411240 1.368373300
C C 0.748949860 0.477446260 1.336179770
C C 0.774835210 0.474171650 1.239158900
C C 0.758993730 0.419342570 1.215940210
C C 0.513705010 -0.034536140 1.094255520
C C 0.478519370 -0.070445140 1.176447330
C C 0.461532110 -0.126427800 1.157560420
C C 0.505336600 -0.164094150 1.088903570
C C 0.540800940 -0.128262420 1.006968610
C C 0.557935730 -0.072716260 1.026362580
C C 0.783910140 0.398653370 1.003163470
C C 0.834792300 0.400893520 0.940989220
C C 0.855591580 0.393586370 0.854366560
C C 0.825624280 0.383446000 0.829117140
C C 0.774891530 0.380228940 0.890648510
C C 0.754270440 0.388214340 0.977896250
C C 0.761044360 0.405924860 1.095628110
C C 0.909509380 0.394823190 0.789719130
C C 0.743923910 0.367110990 0.866174920
C C 0.717346300 0.354139170 0.847216340
C C 0.686298990 0.336215930 0.824700210
C C 0.706575170 0.307745060 0.745831960
C C 0.676781540 0.287995460 0.724359280
C C 0.626077270 0.296314420 0.782216130
C C 0.605641540 0.324902850 0.860124590
C C 0.635773590 0.345041070 0.881299970
C C 0.699252360 0.257454170 0.641404910
C C 0.551866300 0.332176900 0.921280720
C C 0.983613870 0.394108960 0.651711180
C C 1.003363220 0.452816090 0.603264110
C C 1.059231230 0.451328190 0.537051300
C C 1.075617700 0.400039710 0.473990380
C C 1.055594530 0.341380530 0.522118070
C C 0.999714210 0.343100770 0.587535530
C C 0.478328490 0.365780670 1.045812770
C C 0.460628450 0.427676920 1.044982690
C C 0.404824880 0.432593390 1.109836760
C C 0.387320540 0.416129310 1.200570230
C C 0.405288990 0.354553870 1.201569550
C C 0.461119500 0.350250240 1.137157750
H H 0.968833190 0.202031310 0.733009390
H H 0.860457290 0.066041800 0.824984530
H H 0.871326650 0.205186280 0.664359260
H H 0.930267510 0.281837890 0.612268440
H H 0.958586840 0.130160540 0.834648250
H H 0.715785410 0.021703670 0.885011030
H H 0.619283280 0.023317410 0.814162980
H H 0.755358410 0.118333450 0.661480220
H H 0.640760120 -0.031148640 0.972334030
H H 0.636404570 0.085035320 0.697449490
H H 0.955061140 0.066699430 0.921992670
H H 0.949063960 -0.054346260 0.859455310
H H 1.000742250 -0.007830800 0.805044790
H H 1.006581960 -0.015219870 0.925972630
H H 1.007716280 -0.086193500 0.888287840
H H 0.951257230 -0.081177140 1.050009410
H H 0.919557090 -0.099771240 1.008029520
H H 0.924490230 0.023675200 1.067113890
H H 0.873079690 -0.023217160 1.121790690
H H 0.870230110 -0.019421160 0.996733180
H H 0.648283910 0.136085360 0.591783640
H H 0.704571310 0.059693710 0.485314440
H H 0.753789120 0.109847510 0.436346610
H H 0.719654580 0.105515900 0.353839570
H H 0.660919450 0.123140440 0.447262970
H H 0.700115760 0.213045450 0.358689840
H H 0.751297760 0.202718500 0.357991790
H H 0.695441370 0.277597220 0.468388060
H H 0.646287930 0.227357920 0.518066140
H H 0.740669550 0.211011040 0.500568920
H H 0.832899270 0.169936830 1.115057460
H H 0.699953510 0.256075630 1.193615030
H H 0.734908690 0.083217030 1.080246740
H H 0.808126810 0.033689540 1.034900650
H H 0.818561210 0.270924530 1.165308360
H H 0.585778660 0.265324040 1.151143230
H H 0.486717310 0.178070140 1.119423010
H H 0.590970740 0.076699050 1.124510090
H H 0.529220480 0.323682680 1.147915180
H H 0.493939820 0.073291550 1.089919620
H H 0.809135650 0.360410620 1.213385360
H H 0.703274580 0.366814520 1.376877640
H H 0.750897090 0.326270800 1.365013100
H H 0.797263330 0.418540230 1.339449180
H H 0.738306660 0.423271050 1.438124070
H H 0.761359050 0.516328840 1.351308710
H H 0.709401020 0.482697990 1.369992160
H H 0.814664130 0.472352980 1.204068880
H H 0.767098870 0.513352940 1.216462680
H H 0.719101100 0.420822260 1.249288720
H H 0.494676600 -0.020772640 1.067132400
H H 0.447286980 -0.042650690 1.223466590
H H 0.497479190 -0.081806800 1.204157540
H H 0.437134810 -0.151753690 1.216805210
H H 0.440160880 -0.114164740 1.134711950
H H 0.492865120 -0.203036770 1.074008310
H H 0.524596670 -0.180067260 1.114273840
H H 0.572857500 -0.154540190 0.958787610
H H 0.522935240 -0.114815870 0.978012180
H H 0.576901530 -0.085275050 1.054047640
H H 0.857411650 0.408251090 0.962030390
H H 0.842454200 0.377439320 0.761379190
H H 0.714792990 0.385398420 1.025732080
H H 0.720893400 0.401790410 1.139436640
H H 0.930414290 0.394376970 0.815832400
H H 0.745885590 0.300656440 0.702048540
H H 0.603307760 0.279858720 0.764871730
H H 0.619210510 0.366870050 0.942569090
H H 0.739226180 0.251636150 0.601696920
H H 0.530536030 0.307676880 0.905387590
H H 0.998941160 0.385854480 0.686940230
H H 0.986323220 0.461311170 0.571346390
H H 0.991790060 0.488316760 0.649937470
H H 1.075725610 0.446290300 0.570572780
H H 1.072386980 0.493269290 0.502395590
H H 1.115611260 0.398291210 0.428647050
H H 1.062197790 0.407377390 0.435834520
H H 1.070909980 0.331698880 0.556656920
H H 1.065992550 0.304893210 0.477370040
H H 0.983456400 0.351649400 0.553924510
H H 0.462295410 0.333185360 1.027303130
H H 0.472956670 0.437612440 0.979748020
H H 0.478371100 0.459605580 1.060337520
H H 0.393142830 0.477320400 1.109083830
H H 0.387719310 0.402860740 1.090560080
H H 0.347327050 0.418051090 1.245898810
H H 0.401443080 0.448535680 1.222438570
H H 0.394096750 0.343431600 1.265764050
H H 0.389220660 0.321212910 1.184642120
H H 0.478092660 0.382692930 1.153995710
N N -0.918277590 0.053431180 -0.366491640
N N -0.859763330 0.066448400 -0.547811120
N N -0.704811320 0.120107510 -0.104036290
N N -0.674458500 0.238557410 -0.117414470
N N -0.751523280 0.312828670 -0.727063920
N N -0.785700450 0.415656300 -0.623298490
N N -0.531827380 0.015978920 -0.613115380
N N -0.589662620 -0.038012560 -0.448555590
N N -0.930437100 0.395422090 -0.209614390
N N -0.981741850 0.288067090 -0.135226580
N N -0.531492770 0.363681770 -0.488216520
N N -0.477144420 0.290755890 -0.636237760
C C -0.923172780 0.208660070 -0.192401370
C C -0.938961080 0.181819020 -0.236376760
C C -0.916552360 0.130532030 -0.283423710
C C -0.877746290 0.105806660 -0.287537830
C C -0.861201740 0.132669850 -0.245020920
C C -0.884419330 0.184176450 -0.197055210
C C -0.946267810 0.263385900 -0.142447160
C C -0.933035650 0.103491020 -0.331022880
C C -0.820039500 0.109453200 -0.251977580
C C -0.784409770 0.091755370 -0.259393600
C C -0.740887190 0.072038810 -0.271533440
C C -0.707566720 0.035480140 -0.341639360
C C -0.664223210 0.017784060 -0.356352460
C C -0.653635590 0.036913420 -0.300972090
C C -0.686538740 0.072674160 -0.230935300
C C -0.730270620 0.090108260 -0.216026970
C C -0.629660280 -0.019976840 -0.431423330
C C -0.674240980 0.093493480 -0.174152560
C C -0.935175110 0.032080100 -0.414689610
C C -0.968808500 -0.021371890 -0.368995390
C C -0.984423450 -0.047617390 -0.421431910
C C -0.939719390 -0.064164790 -0.512279430
C C -0.905782600 -0.011065870 -0.557876760
C C -0.890006820 0.014506100 -0.505393830
C C -0.688305330 0.140891170 -0.054983860
C C -0.714119840 0.106380460 0.029561240
C C -0.700218160 0.130156750 0.085716560
C C -0.711547550 0.196123510 0.103374240
C C -0.686203030 0.230706980 0.019139320
C C -0.700678480 0.206998730 -0.036161220
C C -0.787030310 0.120970320 -0.595132050
C C -0.798788040 0.170256410 -0.622551980
C C -0.767338420 0.218442290 -0.658238450
C C -0.723901400 0.217986020 -0.666192810
C C -0.712150680 0.169463730 -0.637884270
C C -0.743994780 0.120813310 -0.602647810
C C -0.820065360 0.069437260 -0.556533860
C C -0.780885490 0.270676760 -0.685151230
C C -0.669000550 0.169514020 -0.641850340
C C -0.633707970 0.169502070 -0.641933210
C C -0.593008660 0.170854260 -0.638759360
C C -0.571632820 0.225049540 -0.643481250
C C -0.533352080 0.227423170 -0.637139090
C C -0.516190230 0.175280190 -0.625450780
C C -0.536773290 0.121336550 -0.621450550
C C -0.575108970 0.119078630 -0.628368560
C C -0.512185620 0.285255650 -0.641125440
C C -0.518869720 0.066806150 -0.607214340
C C -0.769248450 0.363127800 -0.747086890
C C -0.742866410 0.366377750 -0.844411550
C C -0.758143570 0.421411240 -0.868373300
C C -0.748949860 0.477446260 -0.836179770
C C -0.774835210 0.474171650 -0.739158900
C C -0.758993730 0.419342570 -0.715940210
C C -0.513705010 -0.034536140 -0.594255520
C C -0.478519370 -0.070445140 -0.676447330
C C -0.461532110 -0.126427800 -0.657560420
C C -0.505336600 -0.164094150 -0.588903570
C C -0.540800940 -0.128262420 -0.506968610
C C -0.557935730 -0.072716260 -0.526362580
C C -0.783910140 0.398653370 -0.503163470
C C -0.834792300 0.400893520 -0.440989220
C C -0.855591580 0.393586370 -0.354366560
C C -0.825624280 0.383446000 -0.329117140
C C -0.774891530 0.380228940 -0.390648510
C C -0.754270440 0.388214340 -0.477896250
C C -0.761044360 0.405924860 -0.595628110
C C -0.909509380 0.394823190 -0.289719130
C C -0.743923910 0.367110990 -0.366174920
C C -0.717346300 0.354139170 -0.347216340
C C -0.686298990 0.336215930 -0.324700210
C C -0.706575170 0.307745060 -0.245831960
C C -0.676781540 0.287995460 -0.224359280
C C -0.626077270 0.296314420 -0.282216130
C C -0.605641540 0.324902850 -0.360124590
C C -0.635773590 0.345041070 -0.381299970
C C -0.699252360 0.257454170 -0.141404910
C C -0.551866300 0.332176900 -0.421280720
C C -0.983613870 0.394108960 -0.151711180
C C -1.003363220 0.452816090 -0.103264110
C C -1.059231230 0.451328190 -0.037051300
C C -1.075617700 0.400039710 0.026009620
C C -1.055594530 0.341380530 -0.022118070
C C -0.999714210 0.343100770 -0.087535530
C C -0.478328490 0.365780670 -0.545812770
C C -0.460628450 0.427676920 -0.544982690
C C -0.404824880 0.432593390 -0.609836760
C C -0.387320540 0.416129310 -0.700570230
C C -0.405288990 0.354553870 -0.701569550
C C -0.461119500 0.350250240 -0.637157750
H H -0.968833190 0.202031310 -0.233009390
H H -0.860457290 0.066041800 -0.324984530
H H -0.871326650 0.205186280 -0.164359260
H H -0.930267510 0.281837890 -0.112268440
H H -0.958586840 0.130160540 -0.334648250
H H -0.715785410 0.021703670 -0.385011030
H H -0.619283280 0.023317410 -0.314162980
H H -0.755358410 0.118333450 -0.161480220
H H -0.640760120 -0.031148640 -0.472334030
H H -0.636404570 0.085035320 -0.197449490
H H -0.955061140 0.066699430 -0.421992670
H H -0.949063960 -0.054346260 -0.359455310
H H -1.000742250 -0.007830800 -0.305044790
H H -1.006581960 -0.015219870 -0.425972630
H H -1.007716280 -0.086193500 -0.388287840
H H -0.951257230 -0.081177140 -0.550009410
H H -0.919557090 -0.099771240 -0.508029520
H H -0.924490230 0.023675200 -0.567113890
H H -0.873079690 -0.023217160 -0.621790690
H H -0.870230110 -0.019421160 -0.496733180
H H -0.648283910 0.136085360 -0.091783640
H H -0.704571310 0.059693710 0.014685560
H H -0.753789120 0.109847510 0.063653390
H H -0.719654580 0.105515900 0.146160430
H H -0.660919450 0.123140440 0.052737030
H H -0.700115760 0.213045450 0.141310160
H H -0.751297760 0.202718500 0.142008210
H H -0.695441370 0.277597220 0.031611940
H H -0.646287930 0.227357920 -0.018066140
H H -0.740669550 0.211011040 -0.000568920
H H -0.832899270 0.169936830 -0.615057460
H H -0.699953510 0.256075630 -0.693615030
H H -0.734908690 0.083217030 -0.580246740
H H -0.808126810 0.033689540 -0.534900650
H H -0.818561210 0.270924530 -0.665308360
H H -0.585778660 0.265324040 -0.651143230
H H -0.486717310 0.178070140 -0.619423010
H H -0.590970740 0.076699050 -0.624510090
H H -0.529220480 0.323682680 -0.647915180
H H -0.493939820 0.073291550 -0.589919620
H H -0.809135650 0.360410620 -0.713385360
H H -0.703274580 0.366814520 -0.876877640
H H -0.750897090 0.326270800 -0.865013100
H H -0.797263330 0.418540230 -0.839449180
H H -0.738306660 0.423271050 -0.938124070
H H -0.761359050 0.516328840 -0.851308710
H H -0.709401020 0.482697990 -0.869992160
H H -0.814664130 0.472352980 -0.704068880
H H -0.767098870 0.513352940 -0.716462680
H H -0.719101100 0.420822260 -0.749288720
H H -0.494676600 -0.020772640 -0.567132400
H H -0.447286980 -0.042650690 -0.723466590
H H -0.497479190 -0.081806800 -0.704157540
H H -0.437134810 -0.151753690 -0.716805210
H H -0.440160880 -0.114164740 -0.634711950
H H -0.492865120 -0.203036770 -0.574008310
H H -0.524596670 -0.180067260 -0.614273840
H H -0.572857500 -0.154540190 -0.458787610
H H -0.522935240 -0.114815870 -0.478012180
H H -0.576901530 -0.085275050 -0.554047640
H H -0.857411650 0.408251090 -0.462030390
H H -0.842454200 0.377439320 -0.261379190
H H -0.714792990 0.385398420 -0.525732080
H H -0.720893400 0.401790410 -0.639436640
H H -0.930414290 0.394376970 -0.315832400
H H -0.745885590 0.300656440 -0.202048540
H H -0.603307760 0.279858720 -0.264871730
H H -0.619210510 0.366870050 -0.442569090
H H -0.739226180 0.251636150 -0.101696920
H H -0.530536030 0.307676880 -0.405387590
H H -0.998941160 0.385854480 -0.186940230
H H -0.986323220 0.461311170 -0.071346390
H H -0.991790060 0.488316760 -0.149937470
H H -1.075725610 0.446290300 -0.070572780
H H -1.072386980 0.493269290 -0.002395590
H H -1.115611260 0.398291210 0.071352950
H H -1.062197790 0.407377390 0.064165480
H H -1.070909980 0.331698880 -0.056656920
H H -1.065992550 0.304893210 0.022629960
H H -0.983456400 0.351649400 -0.053924510
H H -0.462295410 0.333185360 -0.527303130
H H -0.472956670 0.437612440 -0.479748020
H H -0.478371100 0.459605580 -0.560337520
H H -0.393142830 0.477320400 -0.609083830
H H -0.387719310 0.402860740 -0.590560080
H H -0.347327050 0.418051090 -0.745898810
H H -0.401443080 0.448535680 -0.722438570
H H -0.394096750 0.343431600 -0.765764050
H H -0.389220660 0.321212910 -0.684642120
H H -0.478092660 0.382692930 -0.653995710
N N -0.918277590 -0.053431180 -0.866491640
N N -0.859763330 -0.066448400 -1.047811120
N N -0.704811320 -0.120107510 -0.604036290
N N -0.674458500 -0.238557410 -0.617414470
N N -0.751523280 -0.312828670 -1.227063920
N N -0.785700450 -0.415656300 -1.123298490
N N -0.531827380 -0.015978920 -1.113115380
N N -0.589662620 0.038012560 -0.948555590
N N -0.930437100 -0.395422090 -0.709614390
N N -0.981741850 -0.288067090 -0.635226580
N N -0.531492770 -0.363681770 -0.988216520
N N -0.477144420 -0.290755890 -1.136237760
C C -0.923172780 -0.208660070 -0.692401370
C C -0.938961080 -0.181819020 -0.736376760
C C -0.916552360 -0.130532030 -0.783423710
C C -0.877746290 -0.105806660 -0.787537830
C C -0.861201740 -0.132669850 -0.745020920
C C -0.884419330 -0.184176450 -0.697055210
C C -0.946267810 -0.263385900 -0.642447160
C C -0.933035650 -0.103491020 -0.831022880
C C -0.820039500 -0.109453200 -0.751977580
C C -0.784409770 -0.091755370 -0.759393600
C C -0.740887190 -0.072038810 -0.771533440
C C -0.707566720 -0.035480140 -0.841639360
C C -0.664223210 -0.017784060 -0.856352460
C C -0.653635590 -0.036913420 -0.800972090
C C -0.686538740 -0.072674160 -0.730935300
C C -0.730270620 -0.090108260 -0.716026970
C C -0.629660280 0.019976840 -0.931423330
C C -0.674240980 -0.093493480 -0.674152560
C C -0.935175110 -0.032080100 -0.914689610
C C -0.968808500 0.021371890 -0.868995390
C C -0.984423450 0.047617390 -0.921431910
C C -0.939719390 0.064164790 -1.012279430
C C -0.905782600 0.011065870 -1.057876760
C C -0.890006820 -0.014506100 -1.005393830
C C -0.688305330 -0.140891170 -0.554983860
C C -0.714119840 -0.106380460 -0.470438760
C C -0.700218160 -0.130156750 -0.414283440
C C -0.711547550 -0.196123510 -0.396625760
C C -0.686203030 -0.230706980 -0.480860680
C C -0.700678480 -0.206998730 -0.536161220
C C -0.787030310 -0.120970320 -1.095132050
C C -0.798788040 -0.170256410 -1.122551980
C C -0.767338420 -0.218442290 -1.158238450
C C -0.723901400 -0.217986020 -1.166192810
C C -0.712150680 -0.169463730 -1.137884270
C C -0.743994780 -0.120813310 -1.102647810
C C -0.820065360 -0.069437260 -1.056533860
C C -0.780885490 -0.270676760 -1.185151230
C C -0.669000550 -0.169514020 -1.141850340
C C -0.633707970 -0.169502070 -1.141933210
C C -0.593008660 -0.170854260 -1.138759360
C C -0.571632820 -0.225049540 -1.143481250
C C -0.533352080 -0.227423170 -1.137139090
C C -0.516190230 -0.175280190 -1.125450780
C C -0.536773290 -0.121336550 -1.121450550
C C -0.575108970 -0.119078630 -1.128368560
C C -0.512185620 -0.285255650 -1.141125440
C C -0.518869720 -0.066806150 -1.107214340
C C -0.769248450 -0.363127800 -1.247086890
C C -0.742866410 -0.366377750 -1.344411550
C C -0.758143570 -0.421411240 -1.368373300
C C -0.748949860 -0.477446260 -1.336179770
C C -0.774835210 -0.474171650 -1.239158900
C C -0.758993730 -0.419342570 -1.215940210
C C -0.513705010 0.034536140 -1.094255520
C C -0.478519370 0.070445140 -1.176447330
C C -0.461532110 0.126427800 -1.157560420
C C -0.505336600 0.164094150 -1.088903570
C C -0.540800940 0.128262420 -1.006968610
C C -0.557935730 0.072716260 -1.026362580
C C -0.783910140 -0.398653370 -1.003163470
C C -0.834792300 -0.400893520 -0.940989220
C C -0.855591580 -0.393586370 -0.854366560
C C -0.825624280 -0.383446000 -0.829117140
C C -0.774891530 -0.380228940 -0.890648510
C C -0.754270440 -0.388214340 -0.977896250
C C -0.761044360 -0.405924860 -1.095628110
C C -0.909509380 -0.394823190 -0.789719130
C C -0.743923910 -0.367110990 -0.866174920
C C -0.717346300 -0.354139170 -0.847216340
C C -0.686298990 -0.336215930 -0.824700210
C C -0.706575170 -0.307745060 -0.745831960
C C -0.676781540 -0.287995460 -0.724359280
C C -0.626077270 -0.296314420 -0.782216130
C C -0.605641540 -0.324902850 -0.860124590
C C -0.635773590 -0.345041070 -0.881299970
C C -0.699252360 -0.257454170 -0.641404910
C C -0.551866300 -0.332176900 -0.921280720
C C -0.983613870 -0.394108960 -0.651711180
C C -1.003363220 -0.452816090 -0.603264110
C C -1.059231230 -0.451328190 -0.537051300
C C -1.075617700 -0.400039710 -0.473990380
C C -1.055594530 -0.341380530 -0.522118070
C C -0.999714210 -0.343100770 -0.587535530
C C -0.478328490 -0.365780670 -1.045812770
C C -0.460628450 -0.427676920 -1.044982690
C C -0.404824880 -0.432593390 -1.109836760
C C -0.387320540 -0.416129310 -1.200570230
C C -0.405288990 -0.354553870 -1.201569550
C C -0.461119500 -0.350250240 -1.137157750
H H -0.968833190 -0.202031310 -0.733009390
H H -0.860457290 -0.066041800 -0.824984530
H H -0.871326650 -0.205186280 -0.664359260
H H -0.930267510 -0.281837890 -0.612268440
H H -0.958586840 -0.130160540 -0.834648250
H H -0.715785410 -0.021703670 -0.885011030
H H -0.619283280 -0.023317410 -0.814162980
H H -0.755358410 -0.118333450 -0.661480220
H H -0.640760120 0.031148640 -0.972334030
H H -0.636404570 -0.085035320 -0.697449490
H H -0.955061140 -0.066699430 -0.921992670
H H -0.949063960 0.054346260 -0.859455310
H H -1.000742250 0.007830800 -0.805044790
H H -1.006581960 0.015219870 -0.925972630
H H -1.007716280 0.086193500 -0.888287840
H H -0.951257230 0.081177140 -1.050009410
H H -0.919557090 0.099771240 -1.008029520
H H -0.924490230 -0.023675200 -1.067113890
H H -0.873079690 0.023217160 -1.121790690
H H -0.870230110 0.019421160 -0.996733180
H H -0.648283910 -0.136085360 -0.591783640
H H -0.704571310 -0.059693710 -0.485314440
H H -0.753789120 -0.109847510 -0.436346610
H H -0.719654580 -0.105515900 -0.353839570
H H -0.660919450 -0.123140440 -0.447262970
H H -0.700115760 -0.213045450 -0.358689840
H H -0.751297760 -0.202718500 -0.357991790
H H -0.695441370 -0.277597220 -0.468388060
H H -0.646287930 -0.227357920 -0.518066140
H H -0.740669550 -0.211011040 -0.500568920
H H -0.832899270 -0.169936830 -1.115057460
H H -0.699953510 -0.256075630 -1.193615030
H H -0.734908690 -0.083217030 -1.080246740
H H -0.808126810 -0.033689540 -1.034900650
H H -0.818561210 -0.270924530 -1.165308360
H H -0.585778660 -0.265324040 -1.151143230
H H -0.486717310 -0.178070140 -1.119423010
H H -0.590970740 -0.076699050 -1.124510090
H H -0.529220480 -0.323682680 -1.147915180
H H -0.493939820 -0.073291550 -1.089919620
H H -0.809135650 -0.360410620 -1.213385360
H H -0.703274580 -0.366814520 -1.376877640
H H -0.750897090 -0.326270800 -1.365013100
H H -0.797263330 -0.418540230 -1.339449180
H H -0.738306660 -0.423271050 -1.438124070
H H -0.761359050 -0.516328840 -1.351308710
H H -0.709401020 -0.482697990 -1.369992160
H H -0.814664130 -0.472352980 -1.204068880
H H -0.767098870 -0.513352940 -1.216462680
H H -0.719101100 -0.420822260 -1.249288720
H H -0.494676600 0.020772640 -1.067132400
H H -0.447286980 0.042650690 -1.223466590
H H -0.497479190 0.081806800 -1.204157540
H H -0.437134810 0.151753690 -1.216805210
H H -0.440160880 0.114164740 -1.134711950
H H -0.492865120 0.203036770 -1.074008310
H H -0.524596670 0.180067260 -1.114273840
H H -0.572857500 0.154540190 -0.958787610
H H -0.522935240 0.114815870 -0.978012180
H H -0.576901530 0.085275050 -1.054047640
H H -0.857411650 -0.408251090 -0.962030390
H H -0.842454200 -0.377439320 -0.761379190
H H -0.714792990 -0.385398420 -1.025732080
H H -0.720893400 -0.401790410 -1.139436640
H H -0.930414290 -0.394376970 -0.815832400
H H -0.745885590 -0.300656440 -0.702048540
H H -0.603307760 -0.279858720 -0.764871730
H H -0.619210510 -0.366870050 -0.942569090
H H -0.739226180 -0.251636150 -0.601696920
H H -0.530536030 -0.307676880 -0.905387590
H H -0.998941160 -0.385854480 -0.686940230
H H -0.986323220 -0.461311170 -0.571346390
H H -0.991790060 -0.488316760 -0.649937470
H H -1.075725610 -0.446290300 -0.570572780
H H -1.072386980 -0.493269290 -0.502395590
H H -1.115611260 -0.398291210 -0.428647050
H H -1.062197790 -0.407377390 -0.435834520
H H -1.070909980 -0.331698880 -0.556656920
H H -1.065992550 -0.304893210 -0.477370040
H H -0.983456400 -0.351649400 -0.553924510
H H -0.462295410 -0.333185360 -1.027303130
H H -0.472956670 -0.437612440 -0.979748020
H H -0.478371100 -0.459605580 -1.060337520
H H -0.393142830 -0.477320400 -1.109083830
H H -0.387719310 -0.402860740 -1.090560080
H H -0.347327050 -0.418051090 -1.245898810
H H -0.401443080 -0.448535680 -1.222438570
H H -0.394096750 -0.343431600 -1.265764050
H H -0.389220660 -0.321212910 -1.184642120
H H -0.478092660 -0.382692930 -1.153995710
N N 0.918277590 -0.053431180 1.366491640
N N 0.859763330 -0.066448400 1.547811120
N N 0.704811320 -0.120107510 1.104036290
N N 0.674458500 -0.238557410 1.117414470
N N 0.751523280 -0.312828670 1.727063920
N N 0.785700450 -0.415656300 1.623298490
N N 0.531827380 -0.015978920 1.613115380
N N 0.589662620 0.038012560 1.448555590
N N 0.930437100 -0.395422090 1.209614390
N N 0.981741850 -0.288067090 1.135226580
N N 0.531492770 -0.363681770 1.488216520
N N 0.477144420 -0.290755890 1.636237760
C C 0.923172780 -0.208660070 1.192401370
C C 0.938961080 -0.181819020 1.236376760
C C 0.916552360 -0.130532030 1.283423710
C C 0.877746290 -0.105806660 1.287537830
C C 0.861201740 -0.132669850 1.245020920
C C 0.884419330 -0.184176450 1.197055210
C C 0.946267810 -0.263385900 1.142447160
C C 0.933035650 -0.103491020 1.331022880
C C 0.820039500 -0.109453200 1.251977580
C C 0.784409770 -0.091755370 1.259393600
C C 0.740887190 -0.072038810 1.271533440
C C 0.707566720 -0.035480140 1.341639360
C C 0.664223210 -0.017784060 1.356352460
C C 0.653635590 -0.036913420 1.300972090
C C 0.686538740 -0.072674160 1.230935300
C C 0.730270620 -0.090108260 1.216026970
C C 0.629660280 0.019976840 1.431423330
C C 0.674240980 -0.093493480 1.174152560
C C 0.935175110 -0.032080100 1.414689610
C C 0.968808500 0.021371890 1.368995390
C C 0.984423450 0.047617390 1.421431910
C C 0.939719390 0.064164790 1.512279430
C C 0.905782600 0.011065870 1.557876760
C C 0.890006820 -0.014506100 1.505393830
C C 0.688305330 -0.140891170 1.054983860
C C 0.714119840 -0.106380460 0.970438760
C C 0.700218160 -0.130156750 0.914283440
C C 0.711547550 -0.196123510 0.896625760
C C 0.686203030 -0.230706980 0.980860680
C C 0.700678480 -0.206998730 1.036161220
C C 0.787030310 -0.120970320 1.595132050
C C 0.798788040 -0.170256410 1.622551980
C C 0.767338420 -0.218442290 1.658238450
C C 0.723901400 -0.217986020 1.666192810
C C 0.712150680 -0.169463730 1.637884270
C C 0.743994780 -0.120813310 1.602647810
C C 0.820065360 -0.069437260 1.556533860
C C 0.780885490 -0.270676760 1.685151230
C C 0.669000550 -0.169514020 1.641850340
C C 0.633707970 -0.169502070 1.641933210
C C 0.593008660 -0.170854260 1.638759360
C C 0.571632820 -0.225049540 1.643481250
C C 0.533352080 -0.227423170 1.637139090
C C 0.516190230 -0.175280190 1.625450780
C C 0.536773290 -0.121336550 1.621450550
C C 0.575108970 -0.119078630 1.628368560
C C 0.512185620 -0.285255650 1.641125440
C C 0.518869720 -0.066806150 1.607214340
C C 0.769248450 -0.363127800 1.747086890
C C 0.742866410 -0.366377750 1.844411550
C C 0.758143570 -0.421411240 1.868373300
C C 0.748949860 -0.477446260 1.836179770
C C 0.774835210 -0.474171650 1.739158900
C C 0.758993730 -0.419342570 1.715940210
C C 0.513705010 0.034536140 1.594255520
C C 0.478519370 0.070445140 1.676447330
C C 0.461532110 0.126427800 1.657560420
C C 0.505336600 0.164094150 1.588903570
C C 0.540800940 0.128262420 1.506968610
C C 0.557935730 0.072716260 1.526362580
C C 0.783910140 -0.398653370 1.503163470
C C 0.834792300 -0.400893520 1.440989220
C C 0.855591580 -0.393586370 1.354366560
C C 0.825624280 -0.383446000 1.329117140
C C 0.774891530 -0.380228940 1.390648510
C C 0.754270440 -0.388214340 1.477896250
C C 0.761044360 -0.405924860 1.595628110
C C 0.909509380 -0.394823190 1.289719130
C C 0.743923910 -0.367110990 1.366174920
C C 0.717346300 -0.354139170 1.347216340
C C 0.686298990 -0.336215930 1.324700210
C C 0.706575170 -0.307745060 1.245831960
C C 0.676781540 -0.287995460 1.224359280
C C 0.626077270 -0.296314420 1.282216130
C C 0.605641540 -0.324902850 1.360124590
C C 0.635773590 -0.345041070 1.381299970
C C 0.699252360 -0.257454170 1.141404910
C C 0.551866300 -0.332176900 1.421280720
C C 0.983613870 -0.394108960 1.151711180
C C 1.003363220 -0.452816090 1.103264110
C C 1.059231230 -0.451328190 1.037051300
C C 1.075617700 -0.400039710 0.973990380
C C 1.055594530 -0.341380530 1.022118070
C C 0.999714210 -0.343100770 1.087535530
C C 0.478328490 -0.365780670 1.545812770
C C 0.460628450 -0.427676920 1.544982690
C C 0.404824880 -0.432593390 1.609836760
C C 0.387320540 -0.416129310 1.700570230
C C 0.405288990 -0.354553870 1.701569550
C C 0.461119500 -0.350250240 1.637157750
H H 0.968833190 -0.202031310 1.233009390
H H 0.860457290 -0.066041800 1.324984530
H H 0.871326650 -0.205186280 1.164359260
H H 0.930267510 -0.281837890 1.112268440
H H 0.958586840 -0.130160540 1.334648250
H H 0.715785410 -0.021703670 1.385011030
H H 0.619283280 -0.023317410 1.314162980
H H 0.755358410 -0.118333450 1.161480220
H H 0.640760120 0.031148640 1.472334030
H H 0.636404570 -0.085035320 1.197449490
H H 0.955061140 -0.066699430 1.421992670
H H 0.949063960 0.054346260 1.359455310
H H 1.000742250 0.007830800 1.305044790
H H 1.006581960 0.015219870 1.425972630
H H 1.007716280 0.086193500 1.388287840
H H 0.951257230 0.081177140 1.550009410
H H 0.919557090 0.099771240 1.508029520
H H 0.924490230 -0.023675200 1.567113890
H H 0.873079690 0.023217160 1.621790690
H H 0.870230110 0.019421160 1.496733180
H H 0.648283910 -0.136085360 1.091783640
H H 0.704571310 -0.059693710 0.985314440
H H 0.753789120 -0.109847510 0.936346610
H H 0.719654580 -0.105515900 0.853839570
H H 0.660919450 -0.123140440 0.947262970
H H 0.700115760 -0.213045450 0.858689840
H H 0.751297760 -0.202718500 0.857991790
H H 0.695441370 -0.277597220 0.968388060
H H 0.646287930 -0.227357920 1.018066140
H H 0.740669550 -0.211011040 1.000568920
H H 0.832899270 -0.169936830 1.615057460
H H 0.699953510 -0.256075630 1.693615030
H H 0.734908690 -0.083217030 1.580246740
H H 0.808126810 -0.033689540 1.534900650
H H 0.818561210 -0.270924530 1.665308360
H H 0.585778660 -0.265324040 1.651143230
H H 0.486717310 -0.178070140 1.619423010
H H 0.590970740 -0.076699050 1.624510090
H H 0.529220480 -0.323682680 1.647915180
H H 0.493939820 -0.073291550 1.589919620
H H 0.809135650 -0.360410620 1.713385360
H H 0.703274580 -0.366814520 1.876877640
H H 0.750897090 -0.326270800 1.865013100
H H 0.797263330 -0.418540230 1.839449180
H H 0.738306660 -0.423271050 1.938124070
H H 0.761359050 -0.516328840 1.851308710
H H 0.709401020 -0.482697990 1.869992160
H H 0.814664130 -0.472352980 1.704068880
H H 0.767098870 -0.513352940 1.716462680
H H 0.719101100 -0.420822260 1.749288720
H H 0.494676600 0.020772640 1.567132400
H H 0.447286980 0.042650690 1.723466590
H H 0.497479190 0.081806800 1.704157540
H H 0.437134810 0.151753690 1.716805210
H H 0.440160880 0.114164740 1.634711950
H H 0.492865120 0.203036770 1.574008310
H H 0.524596670 0.180067260 1.614273840
H H 0.572857500 0.154540190 1.458787610
H H 0.522935240 0.114815870 1.478012180
H H 0.576901530 0.085275050 1.554047640
H H 0.857411650 -0.408251090 1.462030390
H H 0.842454200 -0.377439320 1.261379190
H H 0.714792990 -0.385398420 1.525732080
H H 0.720893400 -0.401790410 1.639436640
H H 0.930414290 -0.394376970 1.315832400
H H 0.745885590 -0.300656440 1.202048540
H H 0.603307760 -0.279858720 1.264871730
H H 0.619210510 -0.366870050 1.442569090
H H 0.739226180 -0.251636150 1.101696920
H H 0.530536030 -0.307676880 1.405387590
H H 0.998941160 -0.385854480 1.186940230
H H 0.986323220 -0.461311170 1.071346390
H H 0.991790060 -0.488316760 1.149937470
H H 1.075725610 -0.446290300 1.070572780
H H 1.072386980 -0.493269290 1.002395590
H H 1.115611260 -0.398291210 0.928647050
H H 1.062197790 -0.407377390 0.935834520
H H 1.070909980 -0.331698880 1.056656920
H H 1.065992550 -0.304893210 0.977370040
H H 0.983456400 -0.351649400 1.053924510
H H 0.462295410 -0.333185360 1.527303130
H H 0.472956670 -0.437612440 1.479748020
H H 0.478371100 -0.459605580 1.560337520
H H 0.393142830 -0.477320400 1.609083830
H H 0.387719310 -0.402860740 1.590560080
H H 0.347327050 -0.418051090 1.745898810
H H 0.401443080 -0.448535680 1.722438570
H H 0.394096750 -0.343431600 1.765764050
H H 0.389220660 -0.321212910 1.684642120
H H 0.478092660 -0.382692930 1.653995710

#END
